TEST
  COMPUTE GEM
  COMPUTE Q
END
  COMPUTE GEMPATH

CONDITIONS
  TITLE gem_test, with special mixtures, TP path, HIGH T/P
  OUTPUT out\map3b
  DEBUG 3
END

INCLUDE inn/map3b_tp.include

PATH CHANGE
TdgC	400	410	420	430	440	450	460	470	480	490	500	510	520	530	540	550	560	570	580	590	600	610	620	630	640	650	660	670	680	690	700	710	720	730	740	750	760	770	780	790	800	810	820	830	840
Pbar	1000	1030	1060	1090	1120	1150	1180	1210	1240	1270	1300	1330	1360	1390	1420	1450	1480	1510	1540	1570	1600	1630	1660	1690	1720	1750	1780	1810	1840	1870	1900	1930	1960	1990	2020	2050	2080	2110	2140	2170	2200	2230	2260	2290	2320
END

!---------------------------------------------------------------database
ELEMENTS
  O  0.0159995 -2 -2  102.575 
  H  0.001008   1  1  65.34 
  C  0.0120105  4  4  5.74 
  P  0.030973   5  5  41.09 
  Si 0.028085   4  4  18.81 
  Al 0.026982   3  3  31.00 !28.30 
  Fe 0.055847   2  2  27.28 !27.09
  Ca 0.040078   2  2  41.59 !42.9
  Mg 0.024305   2  2  32.67 
  K  0.039098   1  1  64.67 
  Na 0.022990   1  1  51.46 
END ELEMENTS

!INCLUDE dtb\thr_twq_dec06_min.dtb !-> database for min'species
!INCLUDE dtb\hsvthr_twq_dec06_min.dtb
INCLUDE dtb\hsvthr_thcalc_db55_min.tab
!INCLUDE dtb\hsvhkf_slop07_aqu.dtb

SPECIES MIN.THR
CODE TWQDEC06
GAS
 H2O_RK H(2)O(1)
 & ST       -228538.00     -241816.00       188.7200          0.000        1.00000
 & C1        115.45000      -3799.900   -2871300.000             0.        0.00000
 & C2         51055.16      -0.002062     0.00000000          0.000        0.00000
 CO2_RK C(1)O(2) CO2 CARB
 & ST       -394342.00     -393510.01       213.6770          0.000        1.00000
 & C1         93.00000      -1340.900     123800.000             0.        0.00000
 & C2          6336.20      -0.002876     0.00000000          0.000        0.00000
END
END SPECIES


MIXTURE.MODEL BIOTITE_HPWEB
  MODEL SPECIAL
  POLE
    PHLOGOPITE
    ANNITE
    EASTONITE
    OBIOTITE
  END
END
MIXTURE.MODEL CORDIERITE_AVCH
  MODEL SPECIAL
  POLE
    CORDIERITE
    FE-CORDIERITE
    HYDR.CORDIERITE
  END
END
MIXTURE.MODEL OPX_AVCH
  MODEL SPECIAL
  POLE
    ENSTATITE
    FERROSILITE
    MG-TSCHER.PYX
  END
END
MIXTURE.MODEL TALC_AVCH
  MODEL SPECIAL
  POLE
    TALC
    FE-TALC
    TSCHERMAK-TALC
  END
END

MIXTURE.MODEL CHLORITE_HP05
  MODEL SPECIAL
  POLE
    CHLORITE-AF
    CLINOCHLORE
    AMESITE
    DAPHNITE
  END
END

MIXTURE.MODEL MUSCOVITE_HP05
  MODEL SPECIAL
  POLE
    MUSCOVITE
    PARAGONITE
    CELADONITE
    FE-CELADONITE
  END
END

MIXTURE.MODEL GARNET_SS
  MODEL IDEAL 3
  POLE 
    ALMANDINE !FE(3)AL(2)SI(3)O(12)
    PYROPE    !MG(3)AL(2)SI(3)O(12)
  END POLE
END


MIXTURE.MODEL STAURO_SS
  MODEL IDEAL 4
  POLE 
    MG-STAUROLITE
    FE-STAUROLITE
  END
END

MIXTURE.MODEL CHLORITOID_SS
  MODEL IDEAL
    MG-CHLORITOID
    FE-CHLORITOID
  END
END

MIXTURE.MODEL FELDSPAR_SS1
  MODEL FELSPAR
  POLE !for FELSPAR model, order MUST be Ab - Or - An
    ALBITE-LOW
    MICROCLINE !K-FELDSPAR
    ANORTHITE
  END POLE
  MARGULES !Fuhrman&Lindsley(1988)
  !! CAVEAT :
  !! indices in codes 112, 113, etc refer to e-m order given in POLE block !!
    !poly  WH            WS       WV      WCp
    122    18810.000     10.300   0.394   0   ! was 122 ALBITE-LOW K-FELDSPAR
    112    27320.000     10.300   0.394   0   ! was 112 ALBITE-LOW K-FELDSPAR
    !
    233    52468.000     0        -0.120  0   !was 122 K-FELDSPAR ANORTHITE
    223    47396.000     0         0      0   !was 112 K-FELDSPAR ANORTHITE
    !
    311     8471.000     0         0      0   !was 122 ANORTHITE ALBITE-LOW
    331    28226.000     0         0      0   !was 112 ANORTHITE ALBITE-LOW
    !
    123   100045.500     10.300   -0.76   0  !was 123 ALBITE-LOW ANORTHITE K-FELDSPAR
  END MARGULES
END

