TEST
  COMPUTE GEM
  COMPUTE Q
END
CONDITIONS
  TITLE  KFMAS sol-sol
  OUTPUT out\map_tp_1d
  DEBUG  1
END CONDITIONS
SYSTEM.GEM
  TDGC    700
  PBAR    5750
  SIO2   SiO2  8.0
  AL2O3  Al2O3 3.0
  FEO  FeO    0.55
  MGO  MgO    0.45
  K2O    K2O   1.0
  H2O    H2O   8.0
END
ELEMENTS
  O  0.0159995 -2 -2  102.575 
  H  0.001008   1  1  65.34 
  C  0.0120105  4  4  5.74 
  P  0.030973   5  5  41.09 
  Si 0.028085   4  4  18.81 
  Al 0.026982   3  3  31.00 !28.30 
  Fe 0.055847   2  2  27.28 !27.09
  Ca 0.040078   2  2  41.59 !42.9
  Mg 0.024305   2  2  32.67 
  K  0.039098   1  1  64.67 
  Na 0.022990   1  1  51.46 
END ELEMENTS
INCLUDE dtb\hsvthr_thcalc_db55_min.tab
SPECIES HSV.THR
TYPE NAME   SCFORM  SOURCE  FORMAT   PARAMETERS
GAS  WATER  H2O     haar    THERIAK  SPECIAL H2O_HGK
END
MIXTURE.MODEL BIOTITE_HPWEB
  MODEL SPECIAL
  POLE
    PHLOGOPITE
    ANNITE
    EASTONITE
    OBIOTITE
  END
END
MIXTURE.MODEL CORDIERITE_AVCH
  MODEL SPECIAL
  POLE
    CORDIERITE
    FE-CORDIERITE
    HY-CORDIERITE
  END
END
MIXTURE.MODEL OPX_AVCH
  MODEL SPECIAL
  POLE
    ENSTATITE
    FERROSILITE
    MG-TSCHER.PYX
  END
END
MIXTURE.MODEL TALC_AVCH
  MODEL SPECIAL
  POLE
    TALC
    FE-TALC
    TSCHERMAK-TALC
  END
END
MIXTURE.MODEL CHLORITE_HP05
  MODEL SPECIAL
  POLE
    CHLORITE-AF
    CLINOCHLORE
    AMESITE
    DAPHNITE
  END
END
MIXTURE.MODEL MUSCOVITE_HP05
  MODEL SPECIAL
  POLE
    MUSCOVITE
    PARAGONITE
    CELADONITE
    FE-CELADONITE
  END
END
MIXTURE.MODEL GARNET_SS
  MODEL IDEAL 3
  POLE 
    ALMANDINE !FE(3)AL(2)SI(3)O(12)
    PYROPE    !MG(3)AL(2)SI(3)O(12)
  END POLE
END
MIXTURE.MODEL STAURO_SS
  MODEL IDEAL 4
  POLE 
    MG-STAUROLITE
    FE-STAUROLITE
  END
END
MIXTURE.MODEL CHLORITOID_SS
  MODEL IDEAL
    MG-CHLORITOID
    FE-CHLORITOID
  END
END
