TEST
  COMPUTE GEMPATH
  COMPUTE Q
END
CONDITIONS
  TITLE gem_test, with special mixtures, TP path, HIGH T/P
  OUTPUT out\map_tp_1c
  DEBUG 3
END
SYSTEM.GEM
  TDGC    700
  PBAR    4788
  H2O    H2O   30.0   1.00
  SIO2   SiO2  127.0  11.8
  AL2O3  Al2O3 20.3   1.38
  CAO    CaO   1.41   0.141
  NA2O   Na2O  2.67   0.267
  K2O    K2O   4.66   0.316
  FEO    FeO   4.80   0.5
  MGO    MgO   3.80   0.4
END
PATH CHANGE
TdgC	400	420	440	460	480	500	520	540	560	580	600	620	640	660	680
Pbar	3000	3000	3000	3000	3000	3000	3000	3000	3000	3000	3000	3000	3000	3000	3000
END
ELEMENTS
  O  0.0159995 -2 -2  102.575 
  H  0.001008   1  1  65.34 
  C  0.0120105  4  4  5.74 
  P  0.030973   5  5  41.09 
  Si 0.028085   4  4  18.81 
  Al 0.026982   3  3  31.00 !28.30 
  Fe 0.055847   2  2  27.28 !27.09
  Ca 0.040078   2  2  41.59 !42.9
  Mg 0.024305   2  2  32.67 
  K  0.039098   1  1  64.67 
  Na 0.022990   1  1  51.46 
END ELEMENTS
INCLUDE dtb\hsvthr_thcalc_db55_min.tab
SPECIES HSV.THR
TYPE NAME   SCFORM  SOURCE  FORMAT   PARAMETERS
GAS  WATER  H2O     haar    THERIAK  SPECIAL H2O_HGK
END
MIXTURE.MODEL BIOTITE_HPWEB
  MODEL SPECIAL
  POLE
    PHLOGOPITE
    ANNITE
    EASTONITE
    OBIOTITE
  END
END
MIXTURE.MODEL CORDIERITE_AVCH
  MODEL SPECIAL
  POLE
    CORDIERITE
    FE-CORDIERITE
    HY-CORDIERITE
  END
END
MIXTURE.MODEL OPX_AVCH
  MODEL SPECIAL
  POLE
    ENSTATITE
    FERROSILITE
    MG-TSCHER.PYX
  END
END
MIXTURE.MODEL TALC_AVCH
  MODEL SPECIAL
  POLE
    TALC
    FE-TALC
    TSCHERMAK-TALC
  END
END
MIXTURE.MODEL CHLORITE_HP05
  MODEL SPECIAL
  POLE
    CHLORITE-AF
    CLINOCHLORE
    AMESITE
    DAPHNITE
  END
END
MIXTURE.MODEL MUSCOVITE_HP05
  MODEL SPECIAL
  POLE
    MUSCOVITE
    PARAGONITE
    CELADONITE
    FE-CELADONITE
  END
END
MIXTURE.MODEL GARNET_SS
  MODEL IDEAL 3
  POLE 
    ALMANDINE !FE(3)AL(2)SI(3)O(12)
    PYROPE    !MG(3)AL(2)SI(3)O(12)
  END POLE
END
MIXTURE.MODEL STAURO_SS
  MODEL IDEAL 4
  POLE 
    MG-STAUROLITE
    FE-STAUROLITE
  END
END
MIXTURE.MODEL CHLORITOID_SS
  MODEL IDEAL
    MG-CHLORITOID
    FE-CHLORITOID
  END
END
MIXTURE.MODEL FELDSPAR_SS1
  MODEL FELSPAR
  POLE !for FELSPAR model, order MUST be Ab - Or - An
    ALBITE-LOW
    MICROCLINE !K-FELDSPAR
    ANORTHITE
  END POLE
  MARGULES !Fuhrman&Lindsley(1988)
    122    18810.000     10.300   0.394   0   ! was 122 ALBITE-LOW K-FELDSPAR
    112    27320.000     10.300   0.394   0   ! was 112 ALBITE-LOW K-FELDSPAR
    233    52468.000     0        -0.120  0   !was 122 K-FELDSPAR ANORTHITE
    223    47396.000     0         0      0   !was 112 K-FELDSPAR ANORTHITE
    311     8471.000     0         0      0   !was 122 ANORTHITE ALBITE-LOW
    331    28226.000     0         0      0   !was 112 ANORTHITE ALBITE-LOW
    123   100045.500     10.300   -0.76   0  !was 123 ALBITE-LOW ANORTHITE K-FELDSPAR
  END MARGULES
END
